*NODE
1, 200, 1.224646799147e-15, 5
2, 0, 1.224646799147e-15, 5
3, 200, 9.797174393179e-16, 4
4, 0, 9.797174393179e-16, 4
5, 180, 1.469821088337e-15, 6.001
6, 170, 1.469821088337e-15, 6.001
7, 180, 1.224891728507e-15, 5.001
8, 170, 1.224891728507e-15, 5.001
9, 100, 1.469821088337e-15, 6.001
10, 50, 1.469821088337e-15, 6.001
11, 100, 1.224891728507e-15, 5.001
12, 50, 1.224891728507e-15, 5.001
13, 169.999, 0, -6.001
14, 144.498, -25.501, -6.001
15, 144.498, -25.501, 6.001
16, 169.999, 7.663393719973e-17, 6.001
17, 169.999, 1.378662787564e-16, 5.001
18, 144.498, -25.501, 5.001
19, 169.999, -4.930380657631e-32, -5.001
20, 144.498, -25.501, -5.001
** ... 20014 like lines cut

*ELEMENT, type=C3D4
1, 1218, 13010, 7033, 8204
2, 1215, 271, 7027, 8211
3, 3554, 3555, 3553, 13821
4, 1217, 8208, 7032, 12999
5, 8211, 7027, 1215, 8315
6, 7033, 13010, 1314, 8204
7, 3555, 3554, 10151, 13821
8, 8208, 261, 1217, 7032
9, 3575, 13830, 3574, 11677
10, 1146, 354, 8280, 5598
11, 12158, 6118, 475, 12159
12, 8257, 1231, 483, 5705
13, 1183, 8381, 366, 12233
14, 1268, 11761, 478, 11766
15, 1269, 12232, 369, 8389
16, 8280, 354, 1146, 11456
17, 1231, 8257, 483, 12160
18, 8258, 5922, 494, 12174
19, 484, 5705, 5702, 12166
20, 11761, 1268, 478, 5696
** ... 59376 like lines cut

*Elset, elset=Tube, generate
 1, 39697, 1
*Elset, elset=Rotation-Tube, generate
 39698, 42250, 1
*Elset, elset=Fixed-Tube, generate
 42251, 54584, 1
*Elset, elset=Rotation-Circle, generate
 54585, 59396, 1

*SURFACE, NAME=Tube-outer, TYPE=ELEMENT
38758, S2
39620, S2
39685, S4
34500, S2
33736, S4
13197, S1
38697, S3
35904, S1
38857, S2
38785, S3
38722, S1
35326, S1
38797, S2
37311, S1
37753, S3
36846, S3
38912, S3
37204, S4
38853, S2
29811, S1
** ... 14560 like lines cut

*SURFACE, NAME=Rotation-Tube-inner, TYPE=ELEMENT
42112, S3
42129, S4
41452, S1
41118, S1
42130, S2
42128, S4
41292, S4
41064, S2
41992, S4
42019, S4
42050, S3
41817, S4
42080, S2
41763, S2
42165, S2
41887, S3
42102, S2
41421, S1
42117, S2
41728, S3
** ... 758 like lines cut

*SURFACE, NAME=Fixed-Tube-inner, TYPE=ELEMENT
54389, S4
54419, S2
52887, S1
53664, S3
54392, S2
54388, S4
52950, S1
52685, S2
54291, S2
53606, S4
54084, S3
53483, S3
54217, S2
53576, S4
54391, S2
53399, S3
54417, S4
53855, S4
54376, S2
54078, S3
** ... 3742 like lines cut

*SURFACE, NAME=Rotation-Circle-up, TYPE=ELEMENT
59221, S1
58994, S1
59217, S3
59158, S4
59215, S3
59171, S4
59220, S3
59155, S2
59190, S1
58162, S1
59192, S3
55922, S2
59164, S1
58320, S2
59041, S1
56602, S1
59023, S2
55126, S4
59106, S3
55099, S2
** ... 1360 like lines cut

*Material,name=Ti-6Al-4V (Grade 5)
*Density
4.430000e-09,
*Elastic
114, 0.330

*Material,name=Austenitic Stainless Steel
*Density
